10

O       1.11350991      -2.38402125       0.98261777
C       0.57582149      -1.33010606       0.57415377
O       1.02112346      -0.03714436       0.92096842
C       0.60353741       0.92380569       0.01257381
C      -0.97270867      -0.03336159      -0.53668186
O      -0.37341612      -1.28929641      -0.45096230
H       1.22002131       1.00946685      -0.88816523
H       0.41747126       1.88668432       0.49593273
H      -1.34618359       0.15415121      -1.54738694
H      -1.72721118       0.16506711       0.23307993
